<?xml version="1.0" encoding="UTF-8"?>
<additional xmlns:xsi="http://www.w3.org/2001/XMLSchema-instance" xsi:noNamespaceSchemaLocation="http://sumo.dlr.de/xsd/additional_file.xsd">
    <trafficLight id="C" type="static" programID="0" offset="0">
        <phase duration="31" state="GGggrrrrGGggrrrr"/>
        <phase duration="6" state="yyyyyyyyyyyyyyyy"/>
        <phase duration="31" state="rrrrGGggrrrrGGgg"/>
        <phase duration="6" state="yyyyyyyyyyyyyyyy"/>
    </trafficLight>
</additional> 