<?xml version="1.0" encoding="UTF-8"?>
<configuration xmlns:xsi="http://www.w3.org/2001/XMLSchema-instance" xsi:noNamespaceSchemaLocation="http://sumo.dlr.de/xsd/sumoConfiguration.xsd">
    <input>
        <net-file value="simple_intersection.net.xml"/>
        <route-files value="simple_intersection.rou.xml"/>
        <additional-files value="simple_intersection.add.xml"/>
    </input>
    <time>
        <begin value="0"/>
        <end value="3600"/>
    </time>
    <processing>
        <time-to-teleport value="-1"/>
    </processing>
    <report>
        <verbose value="true"/>
        <no-step-log value="true"/>
    </report>
    <gui_only>
        <gui-settings-file value="simple_intersection.settings.xml"/>
    </gui_only>
</configuration> 