<?xml version="1.0" encoding="UTF-8"?>
<routes xmlns:xsi="http://www.w3.org/2001/XMLSchema-instance" xsi:noNamespaceSchemaLocation="http://sumo.dlr.de/xsd/routes_file.xsd">
    <vType id="car" accel="2.6" decel="4.5" sigma="0.5" length="5.0" minGap="2.5" maxSpeed="16.67" guiShape="passenger"/>
    
    <route id="route_0" edges="E2C C2W"/>
    <route id="route_1" edges="W2C C2E"/>
    <route id="route_2" edges="N2C C2S"/>
    <route id="route_3" edges="S2C C2N"/>
    
    <flow id="flow_0" type="car" route="route_0" begin="0" end="3600" vehsPerHour="800"/>
    <flow id="flow_1" type="car" route="route_1" begin="0" end="3600" vehsPerHour="800"/>
    <flow id="flow_2" type="car" route="route_2" begin="0" end="3600" vehsPerHour="800"/>
    <flow id="flow_3" type="car" route="route_3" begin="0" end="3600" vehsPerHour="800"/>
</routes> 